/*--------------------------------*- C++ -*----------------------------------*\
| =========                 |                                                 |
| \\      /  F ield         | OpenFOAM: The Open Source CFD Toolbox           |
|  \\    /   O peration     | Version:  4.x                                   |
|   \\  /    A nd           | Web:      www.OpenFOAM.org                      |
|    \\/     M anipulation  |                                                 |
\*---------------------------------------------------------------------------*/
FoamFile
{
    version     2.0;
    format      ascii;
    class       dictionary;
    location    "system";
    object      controlDict;
}
// * * * * * * * * * * * * * * * * * * * * * * * * * * * * * * * * * * * * * //
libs ("navierSlipBc.so");

application     simpleFoam;

startFrom       startTime;

startTime       0;

stopAt          endTime;

endTime         100000;

deltaT          1;

writeControl    runTime;

writeInterval   500;

purgeWrite      0;

writeFormat     ascii;

writePrecision  9;

writeCompression no;

timeFormat      general;

timePrecision   9;

runTimeModifiable no;

functions
{
   sampleLine
    {
        type sets;
        libs            (sampling);

        interpolationScheme cell;

        setFormat       csv;

        sets
        (
            data
            {
                type    uniform;
                axis    x;
                start   (0.05 0 0);
                end     (0.5 0 0);
                nPoints 100;
            }
        );

        fields          (U);
    } 
}
// ************************************************************************* //
